
     RDKit          3D

 25 26  0  0  0  0  0  0  0  0999 V2000
   16.3457   21.8186   42.7148 C   0  0  0  0  0  0  0  0  0  0  0  0
   15.5943   21.3521   41.9007 O   0  0  0  0  0  0  0  0  0  0  0  0
   17.0057   22.6228   42.4795 O   0  0  0  0  0  0  0  0  0  0  0  0
   16.3695   21.2509   43.9309 C   0  0  0  0  0  0  0  0  0  0  0  0
   15.5189   22.0681   44.7278 C   0  0  0  0  0  0  0  0  0  0  0  0
   17.4919   21.5020   44.5592 C   0  0  0  0  0  0  0  0  0  0  0  0
   16.0363   20.0392   43.8530 O   0  0  0  0  0  0  0  0  0  0  0  0
   16.6254   19.0546   43.4099 C   0  0  0  0  0  0  0  0  0  0  0  0
   16.3979   17.9081   43.8284 C   0  0  0  0  0  0  0  0  0  0  0  0
   16.9925   16.9079   43.4231 C   0  0  0  0  0  0  0  0  0  0  0  0
   17.9093   17.0131   42.5294 C   0  0  0  0  0  0  0  0  0  0  0  0
   17.4943   19.1520   42.5697 C   0  0  0  0  0  0  0  0  0  0  0  0
   18.1365   18.1259   42.1088 C   0  0  0  0  0  0  0  0  0  0  0  0
   18.5940   15.9304   42.0423 C   0  0  0  0  0  0  0  0  0  0  0  0
   17.9344   15.1597   41.1454 C   0  0  0  0  0  0  0  0  0  0  0  0
   16.8755   15.5304   40.8754 O   0  0  0  0  0  0  0  0  0  0  0  0
   18.3301   14.0142   40.9183 N   0  0  0  0  0  0  0  0  0  0  0  0
   17.8231   13.1034   40.1316 C   0  0  0  0  0  0  0  0  0  0  0  0
   16.5302   12.9932   40.0047 C   0  0  0  0  0  0  0  0  0  0  0  0
   16.0292   12.0807   39.3218 C   0  0  0  0  0  0  0  0  0  0  0  0
   16.7821   11.1817   38.8039 C   0  0  0  0  0  0  0  0  0  0  0  0
   18.5094   12.2503   39.5778 C   0  0  0  0  0  0  0  0  0  0  0  0
   18.0212   11.3451   38.9684 C   0  0  0  0  0  0  0  0  0  0  0  0
   14.6659   11.9755   39.1602 C   0  0  0  0  0  0  0  0  0  0  0  0
   18.8030   10.3303   38.4559 C   0  0  0  0  0  0  0  0  0  0  0  0
  1  2  1  0
  1  3  2  0
  1  4  1  0
  4  5  1  0
  4  6  1  0
  4  7  1  0
  7  8  1  0
  8  9  2  0
  8 12  1  0
  9 10  1  0
 10 11  2  0
 11 13  1  0
 11 14  1  0
 12 13  2  0
 14 15  1  0
 15 16  2  0
 15 17  1  0
 17 18  1  0
 18 19  2  0
 18 22  1  0
 19 20  1  0
 20 21  2  0
 20 24  1  0
 21 23  1  0
 22 23  2  0
 23 25  1  0
M  END
$$$$
